Circuit: * SpiceNetList

Fatal Error: Unknown SPICE device type "_" in "_gnd9 gnd"
