Circuit: * C:\Users\idontseeit\Desktop\Justins_Files\electronics\Projects\sudoku\git\FPGA-based-Sudoku\LTspice\LED_driver\TD62504P_test.asc

Direct Newton iteration for .op point succeeded.

Date: Sat Aug 15 22:32:50 2020
Total elapsed time: 0.336 seconds.

tnom = 27
temp = 27
method = modified trap
totiter = 2089
traniter = 2082
tranpoints = 1042
accept = 1042
rejected = 0
matrix size = 13
fillins = 0
solver = Normal
Matrix Compiler1: 604 bytes object code size  0.2/0.2/[0.1]
Matrix Compiler2: 1.07 KB object code size  0.2/0.2/[0.1]

