Circuit: * C:\Users\idontseeit\Desktop\Justins_Files\electronics\Projects\sudoku\git\FPGA-based-Sudoku\LTspice\LED_driver\ULN2003A_test.asc

Direct Newton iteration for .op point succeeded.

Date: Sun Aug 16 00:15:38 2020
Total elapsed time: 0.282 seconds.

tnom = 27
temp = 27
method = modified trap
totiter = 2094
traniter = 2082
tranpoints = 1042
accept = 1042
rejected = 0
matrix size = 15
fillins = 0
solver = Normal
Matrix Compiler1: 864 bytes object code size  0.4/0.2/[0.1]
Matrix Compiler2: 1.28 KB object code size  0.2/0.3/[0.2]

